<configuration xmlns:xsi="http://www.w3.org/2001/XMLSchema-instance" xsi:noNamespaceSchemaLocation="http://sumo.dlr.de/xsd/sumoConfiguration.xsd">
  <input>
    <net-file value="init_network.net.xml"/>
    	<route-files value="init_demand.rou.xml"/>
    
  </input>
  
  	<time>
    		<begin value="0"/>
   		 <end value="3600"/>
    		<step-length value="0.5"/>
 	</time>
  
  <gui_only>
        <start value="true"/>
  </gui_only>

</configuration>
