<?xml version="1.0" encoding="UTF-8"?>

<!-- generated on 2021-12-06 13:40:24 by Eclipse SUMO netedit Version 1.10.0
<configuration xmlns:xsi="http://www.w3.org/2001/XMLSchema-instance" xsi:noNamespaceSchemaLocation="http://sumo.dlr.de/xsd/netconvertConfiguration.xsd">

    <input>
        <sumo-net-file value="/Users/eleonore/Documents/novembre/ITS%20initiation%20SUMO/reseau.net.xml"/>
    </input>

    <output>
        <output-file value="/Users/eleonore/Documents/novembre/ITS%20initiation%20SUMO/reseau.net.xml"/>
    </output>

    <processing>
        <geometry.min-radius.fix.railways value="false"/>
        <geometry.max-grade.fix value="false"/>
        <offset.disable-normalization value="true"/>
        <lefthand value="false"/>
    </processing>

    <junctions>
        <no-turnarounds value="true"/>
        <junctions.corner-detail value="5"/>
        <junctions.limit-turn-speed value="5.5"/>
        <rectangular-lane-cut value="false"/>
    </junctions>

    <pedestrian>
        <walkingareas value="false"/>
    </pedestrian>

    <report>
        <aggregate-warnings value="5"/>
    </report>

</configuration>
-->

<net version="1.9" junctionCornerDetail="5" limitTurnSpeed="5.50" xmlns:xsi="http://www.w3.org/2001/XMLSchema-instance" xsi:noNamespaceSchemaLocation="http://sumo.dlr.de/xsd/net_file.xsd">

    <location netOffset="0.00,0.00" convBoundary="0.00,-1.11,1000.00,0.00" origBoundary="-10000000000.00,-10000000000.00,10000000000.00,10000000000.00" projParameter="!"/>

    <edge id=":2vers1_0" function="internal">
        <lane id=":2vers1_0_0" index="0" speed="36.11" length="0.30" shape="499.85,-4.80 500.15,-4.80"/>
        <lane id=":2vers1_0_1" index="1" speed="36.11" length="0.30" shape="499.85,-1.60 500.15,-1.60"/>
    </edge>
    <edge id=":gneJ0_0" function="internal">
        <lane id=":gneJ0_0_0" index="0" speed="36.11" length="8.40" shape="546.20,-4.86 548.66,-4.37 550.21,-3.27 551.75,-2.17 554.21,-1.68"/>
        <lane id=":gneJ0_0_1" index="1" speed="36.11" length="8.40" shape="546.21,-1.66 554.21,-1.68"/>
    </edge>

    <edge id="E" from="debutE" to="2vers1" priority="-1" length="3500.00">
        <lane id="E_0" index="0" speed="36.11" length="3500.00" shape="0.00,-4.80 499.85,-4.80"/>
        <lane id="E_1" index="1" speed="36.11" length="3500.00" shape="0.00,-1.60 499.85,-1.60"/>
    </edge>
    <edge id="deuxvoies" from="2vers1" to="gneJ0" priority="-1">
        <lane id="deuxvoies_0" index="0" speed="36.11" length="46.06" acceleration="1" shape="500.15,-4.80 546.20,-4.86"/>
        <lane id="deuxvoies_1" index="1" speed="36.11" length="46.06" shape="500.15,-1.60 546.21,-1.66"/>
    </edge>
    <edge id="unevoie" from="gneJ0" to="gneJ2" priority="-1">
        <lane id="unevoie_0" index="0" speed="36.11" length="445.79" shape="554.21,-1.68 1000.00,-2.71"/>
    </edge>

    <junction id="2vers1" type="priority" x="500.00" y="0.00" incLanes="E_0 E_1" intLanes=":2vers1_0_0 :2vers1_0_1" shape="500.15,-0.00 500.14,-6.40 499.85,-6.40 499.85,0.00">
        <request index="0" response="00" foes="00" cont="0"/>
        <request index="1" response="00" foes="00" cont="0"/>
    </junction>
    <junction id="debutE" type="dead_end" x="0.00" y="0.00" incLanes="" intLanes="" shape="0.00,0.00 0.00,-6.40"/>
    <junction id="gneJ0" type="priority" x="550.21" y="-0.07" incLanes="deuxvoies_0 deuxvoies_1" intLanes=":gneJ0_0_0 :gneJ0_0_1" shape="554.21,-0.08 554.20,-3.28 551.17,-4.10 549.23,-5.64 547.99,-6.23 546.20,-6.46 546.21,-0.06">
        <request index="0" response="10" foes="10" cont="0"/>
        <request index="1" response="00" foes="01" cont="0"/>
    </junction>
    <junction id="gneJ2" type="dead_end" x="1000.00" y="-1.11" incLanes="unevoie_0" intLanes="" shape="999.99,-4.31 1000.00,-1.11"/>

    <connection from="E" to="deuxvoies" fromLane="0" toLane="0" via=":2vers1_0_0" dir="s" state="M"/>
    <connection from="E" to="deuxvoies" fromLane="1" toLane="1" via=":2vers1_0_1" dir="s" state="M"/>
    <connection from="deuxvoies" to="unevoie" fromLane="0" toLane="0" via=":gneJ0_0_0" dir="s" state="m"/>
    <connection from="deuxvoies" to="unevoie" fromLane="1" toLane="0" keepClear="0" via=":gneJ0_0_1" dir="s" state="M"/>

    <connection from=":2vers1_0" to="deuxvoies" fromLane="0" toLane="0" dir="s" state="M"/>
    <connection from=":2vers1_0" to="deuxvoies" fromLane="1" toLane="1" dir="s" state="M"/>
    <connection from=":gneJ0_0" to="unevoie" fromLane="0" toLane="0" dir="s" state="M"/>
    <connection from=":gneJ0_0" to="unevoie" fromLane="1" toLane="0" dir="s" state="M"/>

</net>
