<?xml version="1.0" encoding="UTF-8"?>

<routes>


    <vType id="CV" length="5" minGap="4" maxSpeed="33" vClass="private" speedDev="0" color="green" accel="0.5" sigma="0" tau="1.23"  />
    <vType id="HDV" length="5" minGap="4" maxSpeed="33" vClass="private" speedDev="0" color="blue" accel="0.5" sigma="0" tau="1.23"  />    
    <vType id="autre" length="5" minGap="1" maxSpeed="33" vClass="private" speedDev="0" color="red" accel="2" sigma="0" tau="1.23" lcImpatience = "1" lcAssertive = "1" lcPushy = "1" />

    <flow id="flux_E0" type="CV" begin="0.00" from="debutP" to="unevoie" end="900.00" number="345" departSpeed="desired" departLane="random" />
    <flow id="flux_E0bis" type="HDV" begin="0.00" from="debutP" to="unevoie" end="900.00" number="345" departSpeed="desired" departLane="random" />
   
   <flow id="flux_R0" type="autre" begin="0.00" from="R" to="unevoie"  end="900.00" number= "50" departSpeed="desired"/>

    
    <flow id="flux_E2" type="CV" begin="900.00" from="debutP" to="unevoie" end="1200.00" number="115" departSpeed="desired" departLane="random" />
    <flow id="flux_E2bis" type="HDV" begin="900.00" from="debutP" to="unevoie" end="1200.00" number="115" departSpeed="desired" departLane="random" />

    <flow id="flux_R2" type="autre" begin="900.00" from="R" to="unevoie"  end="1200.00" number= "100" departSpeed="desired" />

    <flow id="flux_E3" type="CV" begin="1200.00" from="debutP" to="unevoie" end="2100.00" number="345" departSpeed="desired"  departLane="random"/>
    <flow id="flux_E3bis" type="HDV" begin="1200.00" from="debutP" to="unevoie" end="2100.00" number="345" departSpeed="desired"  departLane="random"/>

    <flow id="flux_R3" type="autre" begin="1200.00" from="R" to="unevoie" end="2100.00" number= "5" departSpeed="desired"  />

  



</routes>
