<edges>
    <edge from="1" id="1to2" to="2" numLanes="2" speed="13.89"/>
    <edge from="2" id="2to3" to="3" numLanes="2" speed="13.89"/>
</edges>