<?xml version="1.0" encoding="UTF-8"?>

<!-- generated on 2021-12-14 16:38:15 by Eclipse SUMO netconvert Version 1.10.0
<configuration xmlns:xsi="http://www.w3.org/2001/XMLSchema-instance" xsi:noNamespaceSchemaLocation="http://sumo.dlr.de/xsd/netconvertConfiguration.xsd">

    <input>
        <node-files value="traffic_light_nodes.nod.xml"/>
        <edge-files value="traffic_light_edges.edg.xml"/>
    </input>

    <output>
        <output-file value="traffic_light_net.net.xml"/>
    </output>

    <junctions>
        <no-turnarounds value="true"/>
    </junctions>

    <report>
        <aggregate-warnings value="5"/>
    </report>

</configuration>
-->

<net version="1.9" junctionCornerDetail="5" limitTurnSpeed="5.50" xmlns:xsi="http://www.w3.org/2001/XMLSchema-instance" xsi:noNamespaceSchemaLocation="http://sumo.dlr.de/xsd/net_file.xsd">

    <location netOffset="1000.00,0.00" convBoundary="0.00,0.00,1100.00,0.00" origBoundary="-1000.00,0.00,100.00,0.00" projParameter="!"/>

    <edge id=":2_0" function="internal">
        <lane id=":2_0_0" index="0" speed="13.89" length="0.10" shape="1000.00,-4.80 1000.00,-4.80"/>
        <lane id=":2_0_1" index="1" speed="13.89" length="0.10" shape="1000.00,-1.60 1000.00,-1.60"/>
    </edge>

    <edge id="1to2" from="1" to="2" priority="-1">
        <lane id="1to2_0" index="0" speed="13.89" length="1000.00" shape="0.00,-4.80 1000.00,-4.80"/>
        <lane id="1to2_1" index="1" speed="13.89" length="1000.00" shape="0.00,-1.60 1000.00,-1.60"/>
    </edge>
    <edge id="2to3" from="2" to="3" priority="-1">
        <lane id="2to3_0" index="0" speed="13.89" length="100.00" shape="1000.00,-4.80 1100.00,-4.80"/>
        <lane id="2to3_1" index="1" speed="13.89" length="100.00" shape="1000.00,-1.60 1100.00,-1.60"/>
    </edge>

    <tlLogic id="2" type="static" programID="0" offset="0">
        <phase duration="82" state="GG"/>
        <phase duration="3"  state="yy"/>
        <phase duration="5"  state="rr"/>
    </tlLogic>

    <junction id="1" type="dead_end" x="0.00" y="0.00" incLanes="" intLanes="" shape="0.00,0.00 0.00,-6.40"/>
    <junction id="2" type="traffic_light" x="1000.00" y="0.00" incLanes="1to2_0 1to2_1" intLanes=":2_0_0 :2_0_1" shape="1000.00,0.00 1000.00,-6.40 1000.00,0.00">
        <request index="0" response="00" foes="00" cont="0"/>
        <request index="1" response="00" foes="00" cont="0"/>
    </junction>
    <junction id="3" type="dead_end" x="1100.00" y="0.00" incLanes="2to3_0 2to3_1" intLanes="" shape="1100.00,-6.40 1100.00,0.00"/>

    <connection from="1to2" to="2to3" fromLane="0" toLane="0" via=":2_0_0" tl="2" linkIndex="0" dir="s" state="O"/>
    <connection from="1to2" to="2to3" fromLane="1" toLane="1" via=":2_0_1" tl="2" linkIndex="1" dir="s" state="O"/>

    <connection from=":2_0" to="2to3" fromLane="0" toLane="0" dir="s" state="M"/>
    <connection from=":2_0" to="2to3" fromLane="1" toLane="1" dir="s" state="M"/>

</net>
