<edges>
    <edge from="1" id="1to2" to="2" numLanes="2" speed="13.89"/>
    <edge from="2" id="2to1" to="1" numLanes="2" speed="13.89"/>
    <edge from="2" id="2to3" to="3" numLanes="2" speed="13.89"/>
    <edge from="3" id="3to2" to="2" numLanes="2" speed="13.89"/>
    <edge from="2" id="2to4" to="4" numLanes="2" speed="13.89"/>
    <edge from="4" id="4to2" to="2" numLanes="2" speed="13.89"/>
    <edge from="2" id="2to5" to="5" numLanes="2" speed="13.89"/>
    <edge from="5" id="5to2" to="2" numLanes="2" speed="13.89"/>
</edges>